ckt7_Mon_rfi_17_der050.csv
fault_bus,fault_type,fault_R_ohm,Va_mag_pu,Va_ang_deg,Vb_mag_pu,Vb_ang_deg,Vc_mag_pu,Vc_ang_deg,Ia_mag_A,Ia_ang_deg,Ib_mag_A,Ib_ang_deg,Ic_mag_A,Ic_ang_deg
318412,SLG,0,0.491992,-78.7699,1.444594,-129.618,1.010656,101.8598,0.0,11.2279,0.0,-39.6372,0.0,-168.1381
318412,SLG,10,1.261991,-19.4115,1.260347,-139.0335,1.254473,100.5201,0.0,70.5787,0.0,-49.0273,0.0,-169.463
318412,SLG,20,1.261886,-19.3903,1.260432,-139.0372,1.2545,100.5253,0.0,70.6176,0.0,-49.048,0.0,-169.4995
318412,SLG,30,1.261851,-19.3832,1.26046,-139.0385,1.254509,100.5271,0.0,70.6199,0.0,-49.0639,0.0,-169.4639
318412,SLG,40,1.261833,-19.3797,1.260474,-139.0391,1.254514,100.5279,0.0,70.6351,0.0,-49.0398,0.0,-169.4613
318412,LL,0,0.427152,-108.9506,0.306182,-154.2013,1.126395,108.8517,0.0,-18.9405,0.0,-64.2364,0.0,-161.1498
318412,LL,10,1.261935,-19.422,1.260558,-139.0762,1.254302,100.5276,0.0,70.6129,0.0,-49.0802,0.0,-169.4613
318412,LL,20,1.261858,-19.3955,1.260537,-139.0586,1.254415,100.5291,0.0,70.6323,0.0,-49.0611,0.0,-169.4434
318412,LL,30,1.261832,-19.3867,1.26053,-139.0527,1.254452,100.5296,0.0,70.6388,0.0,-49.0671,0.0,-169.4808
318412,LL,40,1.261819,-19.3823,1.260526,-139.0498,1.254471,100.5298,0.0,70.6029,0.0,-49.0446,0.0,-169.4639
318412,3LG,0,0.176661,-93.0975,0.176341,147.0844,0.176014,26.6412,0.0,-3.1123,0.0,-122.9335,0.0,116.6484
318412,3LG,10,1.261766,-19.4147,1.260502,-139.0866,1.254514,100.4849,0.0,70.5901,0.0,-49.0904,0.0,-169.5387
318412,3LG,20,1.261773,-19.3919,1.260509,-139.0637,1.254521,100.5077,0.0,70.6126,0.0,-49.0643,0.0,-169.4834
318412,3LG,30,1.261776,-19.3843,1.260511,-139.0561,1.254523,100.5153,0.0,70.6301,0.0,-49.0642,0.0,-169.4995
318412,3LG,40,1.261777,-19.3805,1.260512,-139.0523,1.254524,100.5191,0.0,70.6368,0.0,-49.0683,0.0,-169.4995
243937,SLG,0,0.727666,-96.2243,1.959953,-155.3824,1.63578,129.0892,0.0,-6.2289,0.0,-65.4053,0.0,-140.9189
243937,SLG,10,1.25595,-19.7176,1.266097,-139.1201,1.253236,100.7901,0.0,70.2812,0.0,-49.1165,0.0,-169.2175
243937,SLG,20,1.258856,-19.5437,1.263316,-139.0806,1.253873,100.6606,0.0,70.4714,0.0,-49.0756,0.0,-169.3234
243937,SLG,30,1.259828,-19.4855,1.262385,-139.0674,1.254089,100.6173,0.0,70.5202,0.0,-49.0722,0.0,-169.3608
243937,SLG,40,1.260316,-19.4564,1.261919,-139.0608,1.254198,100.5957,0.0,70.545,0.0,-49.0759,0.0,-169.4212
243937,LL,0,0.376351,-128.5962,0.374298,-140.2168,1.673107,105.4332,0.0,-38.5744,0.0,-50.2016,0.0,-164.5413
243937,LL,10,1.254659,-19.4599,1.260213,-139.4669,1.258777,100.7109,0.0,70.5274,0.0,-49.4673,0.0,-169.2901
243937,LL,20,1.2582,-19.4144,1.260368,-139.2548,1.25666,100.6215,0.0,70.5923,0.0,-49.2542,0.0,-169.4013
243937,LL,30,1.259389,-19.3993,1.260418,-139.1838,1.255951,100.5913,0.0,70.6161,0.0,-49.2102,0.0,-169.413
243937,LL,40,1.259985,-19.3917,1.260443,-139.1481,1.255596,100.5762,0.0,70.6186,0.0,-49.1571,0.0,-169.4317
243937,3LG,0,0.043701,-76.5976,0.043624,163.5708,0.043547,43.1472,0.0,13.4214,0.0,-106.4242,0.0,133.1653
243937,3LG,10,1.260187,-19.5373,1.258925,-139.2096,1.252951,100.3622,0.0,70.495,0.0,-49.2058,0.0,-169.6406
243937,3LG,20,1.260985,-19.4532,1.259722,-139.1253,1.25374,100.4463,0.0,70.572,0.0,-49.1413,0.0,-169.5522
243937,3LG,30,1.26125,-19.4252,1.259987,-139.0972,1.254003,100.4744,0.0,70.5792,0.0,-49.1036,0.0,-169.5156
243937,3LG,40,1.261383,-19.4112,1.260119,-139.0831,1.254134,100.4884,0.0,70.5991,0.0,-49.0987,0.0,-169.5174
157347,SLG,0,0.592468,-36.8544,1.572311,-150.5667,1.451973,115.186,0.0,53.1613,0.0,-60.5855,0.0,-154.8129
157347,SLG,10,1.257165,-20.0491,1.267741,-138.9584,1.249332,100.7732,0.0,69.9583,0.0,-48.9907,0.0,-169.2273
157347,SLG,20,1.259494,-19.7113,1.264143,-138.9981,1.251892,100.6514,0.0,70.2906,0.0,-48.9865,0.0,-169.3432
157347,SLG,30,1.260261,-19.5977,1.262937,-139.012,1.252762,100.611,0.0,70.418,0.0,-48.9971,0.0,-169.3894
157347,SLG,40,1.260643,-19.5407,1.262333,-139.0191,1.2532,100.5909,0.0,70.4472,0.0,-49.0299,0.0,-169.4134
157347,LL,0,0.540227,-25.2425,0.649905,-148.1938,1.542322,101.826,0.0,64.7458,0.0,-58.1795,0.0,-168.1607
157347,LL,10,1.251997,-19.8086,1.262952,-139.6388,1.256545,100.8554,0.0,70.211,0.0,-49.637,0.0,-169.1313
157347,LL,20,1.256861,-19.5914,1.261801,-139.341,1.255504,100.6951,0.0,70.4026,0.0,-49.3529,0.0,-169.3161
157347,LL,30,1.258494,-19.5178,1.261388,-139.2412,1.255171,100.6407,0.0,70.4872,0.0,-49.2661,0.0,-169.3509
157347,LL,40,1.259314,-19.4809,1.261175,-139.1912,1.255008,100.6133,0.0,70.5195,0.0,-49.192,0.0,-169.39
157347,3LG,0,0.604469,-23.8857,0.603277,-143.7185,0.602103,95.8311,0.0,66.1364,0.0,-53.7319,0.0,-174.1564
157347,3LG,10,1.259093,-19.7264,1.257847,-139.3988,1.25187,100.1735,0.0,70.276,0.0,-49.4016,0.0,-169.8289
157347,3LG,20,1.260447,-19.5483,1.259192,-139.2204,1.253209,100.3515,0.0,70.4564,0.0,-49.2377,0.0,-169.6458
157347,3LG,30,1.260894,-19.4887,1.259635,-139.1607,1.25365,100.411,0.0,70.5288,0.0,-49.1787,0.0,-169.5896
157347,3LG,40,1.261116,-19.4588,1.259856,-139.1308,1.253871,100.4409,0.0,70.5563,0.0,-49.1348,0.0,-169.5726
298162,SLG,0,0.50243,-89.5297,1.783301,-146.1515,1.31077,123.7447,0.0,0.4629,0.0,-56.1561,0.0,-146.267
298162,SLG,10,1.258787,-21.1042,1.273415,-138.5282,1.238268,100.7763,0.0,68.905,0.0,-48.5229,0.0,-169.2162
298162,SLG,20,1.260389,-20.242,1.266917,-138.7777,1.246307,100.6483,0.0,69.755,0.0,-48.8021,0.0,-169.333
298162,SLG,30,1.260876,-19.9522,1.264772,-138.8639,1.249028,100.6079,0.0,70.0618,0.0,-48.8507,0.0,-169.3774
298162,SLG,40,1.261111,-19.8068,1.263704,-138.9076,1.250395,100.5881,0.0,70.1814,0.0,-48.9039,0.0,-169.4102
298162,LL,0,0.320702,-138.8552,0.31985,-141.2224,1.549117,107.6707,0.0,-48.8578,0.0,-51.2393,0.0,-162.3175
298162,LL,10,1.242569,-20.8735,1.269755,-140.2692,1.251254,101.2973,0.0,69.1132,0.0,-50.2899,0.0,-168.6975
298162,LL,20,1.252164,-20.1289,1.265346,-139.6541,1.252693,100.9158,0.0,69.8706,0.0,-49.6555,0.0,-169.0598
298162,LL,30,1.255368,-19.8773,1.263783,-139.4495,1.253259,100.7878,0.0,70.1274,0.0,-49.4658,0.0,-169.2166
298162,LL,40,1.256971,-19.7509,1.262984,-139.3473,1.253559,100.7236,0.0,70.2449,0.0,-49.3505,0.0,-169.2424
298162,3LG,0,0.007762,-85.7621,0.00775,154.3891,0.007732,34.0334,0.0,4.236,0.0,-115.6229,0.0,124.0286
298162,3LG,10,1.254977,-20.3584,1.253818,-140.0301,1.247789,99.5449,0.0,69.6486,0.0,-50.0382,0.0,-170.4434
298162,3LG,20,1.258417,-19.8651,1.257205,-139.5368,1.251195,100.0364,0.0,70.1424,0.0,-49.5629,0.0,-169.9476
298162,3LG,30,1.259547,-19.7,1.258317,-139.3718,1.252314,100.2008,0.0,70.2996,0.0,-49.3732,0.0,-169.7923
298162,3LG,40,1.260108,-19.6174,1.25887,-139.2892,1.252871,100.2832,0.0,70.3757,0.0,-49.2946,0.0,-169.7037
165448,SLG,0,0.495385,-89.703,1.789965,-145.9299,1.303766,124.0327,0.0,0.3069,0.0,-55.944,0.0,-145.9523
165448,SLG,10,1.259273,-21.2364,1.274042,-138.465,1.236746,100.7682,0.0,68.7692,0.0,-48.4495,0.0,-169.2026
165448,SLG,20,1.260654,-20.3086,1.267214,-138.7451,1.245539,100.6432,0.0,69.6885,0.0,-48.7222,0.0,-169.3492
165448,SLG,30,1.261059,-19.9968,1.264965,-138.8419,1.248514,100.6043,0.0,70.0188,0.0,-48.8165,0.0,-169.4003
165448,SLG,40,1.26125,-19.8403,1.263847,-138.891,1.250009,100.5853,0.0,70.1621,0.0,-48.9044,0.0,-169.4058
165448,LL,0,0.317796,-139.5317,0.317071,-141.7449,1.550442,107.8794,0.0,-49.5647,0.0,-51.7229,0.0,-162.1222
165448,LL,10,1.241539,-21.0159,1.270785,-140.3403,1.250385,101.3546,0.0,68.9862,0.0,-50.3307,0.0,-168.6321
165448,LL,20,1.251661,-20.2013,1.265888,-139.6889,1.252222,100.9441,0.0,69.8045,0.0,-49.7066,0.0,-169.0562
165448,LL,30,1.255036,-19.9258,1.26415,-139.4725,1.252938,100.8065,0.0,70.0872,0.0,-49.4723,0.0,-169.1801
165448,LL,40,1.256723,-19.7874,1.263262,-139.3644,1.253315,100.7376,0.0,70.2299,0.0,-49.3576,0.0,-169.2763
165448,3LG,0,0.00719,-86.1511,0.007179,153.9985,0.007162,33.6497,0.0,3.8403,0.0,-116.0425,0.0,123.6513
165448,3LG,10,1.254517,-20.4375,1.253373,-140.109,1.247331,99.4665,0.0,69.5747,0.0,-50.1186,0.0,-170.5361
165448,3LG,20,1.258194,-19.9048,1.256989,-139.5765,1.250973,99.997,0.0,70.1083,0.0,-49.5795,0.0,-170.0304
165448,3LG,30,1.259399,-19.7266,1.258175,-139.3983,1.252167,100.1745,0.0,70.2665,0.0,-49.4076,0.0,-169.8306
165448,3LG,40,1.259998,-19.6373,1.258764,-139.3091,1.252761,100.2634,0.0,70.3891,0.0,-49.3383,0.0,-169.7284
165449,SLG,0,0.431766,-94.2426,1.849859,-145.7775,1.299817,126.6439,0.0,-4.2147,0.0,-55.8041,0.0,-143.3507
165449,SLG,10,1.265802,-22.5737,1.28084,-137.8114,1.220809,100.6896,0.0,67.4145,0.0,-47.8169,0.0,-169.3011
165449,SLG,20,1.26426,-20.982,1.270308,-138.4048,1.237509,100.5885,0.0,69.0247,0.0,-48.4264,0.0,-169.4123
165449,SLG,30,1.263539,-20.4466,1.266957,-138.6122,1.24315,100.5644,0.0,69.5597,0.0,-48.6239,0.0,-169.4617
165449,SLG,40,1.263139,-20.1781,1.265313,-138.7177,1.245983,100.5541,0.0,69.8196,0.0,-48.748,0.0,-169.4503
165449,LL,0,0.28618,-147.4689,0.286159,-148.9078,1.587102,108.8734,0.0,-57.4489,0.0,-58.8986,0.0,-161.1408
165449,LL,10,1.232114,-22.4619,1.28317,-141.0569,1.241601,101.9706,0.0,67.5333,0.0,-51.0577,0.0,-168.0213
165449,LL,20,1.247221,-20.9378,1.272381,-140.0328,1.24732,101.2424,0.0,69.085,0.0,-50.0181,0.0,-168.7595
165449,LL,30,1.252141,-20.4198,1.268542,-139.6983,1.249556,101.0029,0.0,69.5789,0.0,-49.684,0.0,-168.9773
165449,LL,40,1.254576,-20.1589,1.266578,-139.5325,1.250737,100.8839,0.0,69.8281,0.0,-49.5353,0.0,-169.1193
165449,3LG,0,0.004174,-90.7324,0.00417,149.3899,0.004158,29.124,0.0,-0.7132,0.0,-120.6123,0.0,119.0977
165449,3LG,10,1.251256,-21.2245,1.250329,-140.8916,1.244066,98.6896,0.0,68.7823,0.0,-50.889,0.0,-171.3457
165449,3LG,20,1.256664,-20.3007,1.255567,-139.9698,1.249434,99.6062,0.0,69.6972,0.0,-49.9672,0.0,-170.3902
165449,3LG,30,1.258402,-19.991,1.257249,-139.661,1.251162,99.9135,0.0,70.007,0.0,-49.6625,0.0,-170.084
165449,3LG,40,1.259259,-19.8359,1.258078,-139.5063,1.252015,100.0674,0.0,70.2009,0.0,-49.4969,0.0,-169.9363
287274,SLG,0,0.436918,-83.1561,1.843021,-144.235,1.250335,126.3697,0.0,6.8287,0.0,-54.2507,0.0,-143.633
287274,SLG,10,1.264078,-23.495,1.286387,-137.3731,1.209573,100.6697,0.0,66.5204,0.0,-47.3979,0.0,-169.3186
287274,SLG,20,1.263788,-21.454,1.272783,-138.1681,1.231752,100.5613,0.0,68.5583,0.0,-48.1697,0.0,-169.4458
287274,SLG,30,1.263315,-20.7637,1.268533,-138.4506,1.239286,100.5424,0.0,69.2332,0.0,-48.4798,0.0,-169.4386
287274,SLG,40,1.263005,-20.4168,1.266466,-138.5951,1.243076,100.5362,0.0,69.5998,0.0,-48.5758,0.0,-169.4352
287274,LL,0,0.244316,-115.8905,0.344194,-161.4825,1.579182,109.2392,0.0,-25.9183,0.0,-71.4993,0.0,-160.772
287274,LL,10,1.219134,-23.4347,1.286039,-141.5727,1.236374,102.436,0.0,66.563,0.0,-51.5815,0.0,-167.5936
287274,LL,20,1.240971,-21.4461,1.274173,-140.2793,1.244104,101.4667,0.0,68.5764,0.0,-50.2879,0.0,-168.5162
287274,LL,30,1.248036,-20.7633,1.26981,-139.8597,1.247279,101.1499,0.0,69.2115,0.0,-49.8609,0.0,-168.8364
287274,LL,40,1.251523,-20.4183,1.267556,-139.6523,1.248979,100.9931,0.0,69.5809,0.0,-49.6366,0.0,-169.0066
287274,3LG,0,0.14145,-56.606,0.141337,-176.5077,0.140984,63.2784,0.0,33.4123,0.0,-86.5071,0.0,153.2931
287274,3LG,10,1.243222,-21.7469,1.242519,-141.4122,1.236098,98.1775,0.0,68.2852,0.0,-51.4135,0.0,-171.7915
287274,3LG,20,1.252717,-20.57,1.251732,-140.2377,1.245508,99.3423,0.0,69.4077,0.0,-50.275,0.0,-170.6574
287274,3LG,30,1.255788,-20.1723,1.254709,-139.8412,1.24856,99.7358,0.0,69.7956,0.0,-49.8529,0.0,-170.2762
287274,3LG,40,1.257305,-19.9725,1.25618,-139.6421,1.250069,99.9335,0.0,70.0202,0.0,-49.6589,0.0,-170.0733
283954,SLG,0,0.406431,-85.5318,1.859037,-144.741,1.266978,127.0692,0.0,4.4634,0.0,-54.7388,0.0,-142.9643
283954,SLG,10,1.268461,-24.2973,1.290717,-136.9861,1.199934,100.6244,0.0,65.7145,0.0,-46.9799,0.0,-169.3999
283954,SLG,20,1.266395,-21.8578,1.274557,-137.9608,1.226909,100.5204,0.0,68.1562,0.0,-47.9686,0.0,-169.4613
283954,SLG,30,1.265146,-21.0333,1.269621,-138.3095,1.236059,100.5111,0.0,68.9751,0.0,-48.3329,0.0,-169.482
283954,SLG,40,1.264414,-20.6191,1.267246,-138.4883,1.240657,100.5112,0.0,69.4075,0.0,-48.5039,0.0,-169.4896
283954,LL,0,0.22387,-115.6614,0.332397,-166.7729,1.599632,109.1557,0.0,-25.6564,0.0,-76.7908,0.0,-160.8106
283954,LL,10,1.213675,-24.3141,1.294131,-142.0268,1.231464,102.834,0.0,65.7039,0.0,-52.0152,0.0,-167.1728
283954,LL,20,1.238676,-21.8999,1.278452,-140.4876,1.241067,101.6502,0.0,68.1074,0.0,-50.4981,0.0,-168.3545
283954,LL,30,1.246613,-21.0687,1.272702,-139.9941,1.245132,101.2679,0.0,68.9169,0.0,-50.025,0.0,-168.7201
283954,LL,40,1.250496,-20.6483,1.269738,-139.7514,1.247324,101.0799,0.0,69.3373,0.0,-49.7784,0.0,-168.9357
283954,3LG,0,0.149094,-58.9082,0.149034,-178.8351,0.148662,61.0089,0.0,31.1275,0.0,-88.8153,0.0,151.035
283954,3LG,10,1.241727,-22.2261,1.241264,-141.8863,1.234584,97.7105,0.0,67.7859,0.0,-51.9041,0.0,-172.2866
283954,3LG,20,1.252089,-20.8138,1.25122,-140.4784,1.244855,99.1046,0.0,69.1744,0.0,-50.4769,0.0,-170.8715
283954,3LG,30,1.255398,-20.3358,1.254394,-140.0024,1.248149,99.5764,0.0,69.6478,0.0,-49.9884,0.0,-170.4293
283954,3LG,40,1.257023,-20.0954,1.255954,-139.7633,1.24977,99.8136,0.0,69.9313,0.0,-49.7604,0.0,-170.1861
283956,SLG,0,0.624272,-69.786,1.78183,-141.5586,1.169462,123.356,0.0,20.2199,0.0,-51.5705,0.0,-146.6494
283956,SLG,10,1.267864,-24.2101,1.290317,-137.0277,1.200933,100.6322,0.0,65.7931,0.0,-47.0286,0.0,-169.3346
283956,SLG,20,1.26622,-21.8354,1.27448,-137.9721,1.227163,100.5235,0.0,68.1587,0.0,-47.9886,0.0,-169.4621
283956,SLG,30,1.265065,-21.0232,1.26959,-138.3147,1.236173,100.5127,0.0,68.9697,0.0,-48.3303,0.0,-169.4752
283956,SLG,40,1.264367,-20.6133,1.26723,-138.4912,1.240722,100.5122,0.0,69.3788,0.0,-48.5081,0.0,-169.4828
283956,LL,0,0.436365,-76.2679,0.562043,-169.1854,1.518663,109.5883,0.0,13.7437,0.0,-79.2115,0.0,-160.3779
283956,LL,10,1.214474,-24.2116,1.292668,-141.9848,1.232179,102.7835,0.0,65.7979,0.0,-51.9718,0.0,-167.2245
283956,LL,20,1.238851,-21.8726,1.278064,-140.4785,1.241292,101.6385,0.0,68.1311,0.0,-50.495,0.0,-168.3509
283956,LL,30,1.246687,-21.0562,1.272527,-139.9902,1.245239,101.2629,0.0,68.9563,0.0,-49.9935,0.0,-168.737
283956,LL,40,1.250537,-20.6412,1.269639,-139.7492,1.247387,101.0771,0.0,69.3756,0.0,-49.7591,0.0,-168.9151
283956,3LG,0,0.419634,-55.7917,0.419568,-175.6891,0.418194,64.117,0.0,34.1978,0.0,-85.6761,0.0,154.13
283956,3LG,10,1.241786,-22.1854,1.241305,-141.8461,1.234648,97.75,0.0,67.8267,0.0,-51.8754,0.0,-172.2457
283956,3LG,20,1.252102,-20.8032,1.251227,-140.4679,1.244869,99.1149,0.0,69.2098,0.0,-50.4594,0.0,-170.8874
283956,3LG,30,1.255403,-20.3309,1.254398,-139.9977,1.248155,99.5811,0.0,69.6705,0.0,-50.0001,0.0,-170.4285
283956,3LG,40,1.257027,-20.0926,1.255956,-139.7605,1.249774,99.8163,0.0,69.9042,0.0,-49.7584,0.0,-170.1988
189963,SLG,0,0.194372,-94.4846,1.933661,-144.5938,1.267725,130.3467,0.0,-4.4375,0.0,-54.6054,0.0,-139.6294
189963,SLG,10,1.244366,-27.2482,1.311872,-135.7038,1.164109,100.7184,0.0,62.744,0.0,-45.713,0.0,-169.2516
189963,SLG,20,1.255898,-23.3751,1.283517,-137.2315,1.208416,100.4749,0.0,66.6432,0.0,-47.2609,0.0,-169.5186
189963,SLG,30,1.258521,-22.053,1.275171,-137.805,1.223646,100.4603,0.0,67.9641,0.0,-47.8191,0.0,-169.5469
189963,SLG,40,1.259589,-21.3868,1.271241,-138.1032,1.231323,100.4655,0.0,68.6297,0.0,-48.1027,0.0,-169.566
189963,LL,0,0.110363,-162.992,0.160923,-163.1794,1.667013,109.4707,0.0,-73.0006,0.0,-73.1784,0.0,-160.512
189963,LL,10,1.153449,-27.3741,1.28692,-143.8221,1.219584,104.4985,0.0,62.6079,0.0,-53.8414,0.0,-165.5248
189963,LL,20,1.209567,-23.5207,1.276042,-141.3204,1.231886,102.4263,0.0,66.4663,0.0,-51.3296,0.0,-167.5962
189963,LL,30,1.227504,-22.1669,1.271295,-140.5325,1.23833,101.7667,0.0,67.8369,0.0,-50.5505,0.0,-168.214
189963,LL,40,1.236286,-21.4782,1.268746,-140.1487,1.241976,101.4462,0.0,68.516,0.0,-50.1611,0.0,-168.5704
189963,3LG,0,0.029214,-13.5239,0.029218,-133.5355,0.029226,106.4693,0.0,76.472,0.0,-43.542,0.0,-163.5518
189963,3LG,10,1.20017,-23.8441,1.200758,-143.4951,1.193484,96.153,0.0,66.1716,0.0,-53.5049,0.0,-173.8623
189963,3LG,20,1.231225,-21.6662,1.230875,-141.3218,1.224121,98.2836,0.0,68.3165,0.0,-51.3412,0.0,-171.7169
189963,3LG,30,1.241484,-20.9137,1.240821,-140.5735,1.234298,99.0194,0.0,69.1039,0.0,-50.5743,0.0,-170.9658
189963,3LG,40,1.246588,-20.5325,1.245772,-140.1949,1.239374,99.3922,0.0,69.4904,0.0,-50.2061,0.0,-170.5994
181977,SLG,0,0.264722,-78.4848,1.896806,-143.8469,1.24048,128.7549,0.0,11.522,0.0,-53.8741,0.0,-141.2531
181977,SLG,10,1.246891,-27.8273,1.315893,-135.4519,1.157091,100.726,0.0,62.1851,0.0,-45.4761,0.0,-169.2967
181977,SLG,20,1.25801,-23.6884,1.285013,-137.0729,1.204622,100.445,0.0,66.3148,0.0,-47.0905,0.0,-169.5287
181977,SLG,30,1.260136,-22.2665,1.27602,-137.6926,1.221077,100.4326,0.0,67.7265,0.0,-47.7128,0.0,-169.558
181977,SLG,40,1.260879,-21.5485,1.271817,-138.0165,1.229385,100.4418,0.0,68.4639,0.0,-48.0131,0.0,-169.5511
181977,LL,0,0.120236,-88.9619,0.264794,-171.289,1.640493,109.2628,0.0,0.9925,0.0,-81.3211,0.0,-160.7475
181977,LL,10,1.148629,-27.9625,1.292739,-144.2259,1.217727,104.8372,0.0,62.0612,0.0,-54.2077,0.0,-165.1475
181977,LL,20,1.207789,-23.8718,1.279582,-141.4993,1.229744,102.5835,0.0,66.138,0.0,-51.5188,0.0,-167.4228
181977,LL,30,1.226507,-22.4124,1.273756,-140.6451,1.236643,101.8654,0.0,67.5907,0.0,-50.6547,0.0,-168.1262
181977,LL,40,1.235615,-21.6664,1.270624,-140.2304,1.240618,101.5175,0.0,68.3308,0.0,-50.2321,0.0,-168.494
181977,3LG,0,0.158982,-46.8265,0.159056,-166.8158,0.158968,73.1824,0.0,43.1586,0.0,-76.8496,0.0,163.1813
181977,3LG,10,1.199481,-24.184,1.200296,-143.8316,1.192811,95.8244,0.0,65.7974,0.0,-53.8641,0.0,-174.1784
181977,3LG,20,1.230971,-21.858,1.230729,-141.5102,1.223837,98.0979,0.0,68.1537,0.0,-51.5183,0.0,-171.9009
181977,3LG,30,1.241344,-21.0465,1.240749,-140.7037,1.234128,98.8907,0.0,68.9654,0.0,-50.7003,0.0,-171.1105
181977,3LG,40,1.246495,-20.6339,1.245728,-140.2942,1.239254,99.2938,0.0,69.3902,0.0,-50.3069,0.0,-170.7063
181924,SLG,0,0.09149,-104.3237,1.942694,-146.9637,1.348917,130.3207,0.0,-14.3288,0.0,-56.9548,0.0,-139.6869
181924,SLG,10,1.256469,-29.5804,1.32645,-134.6625,1.136126,100.6528,0.0,60.4284,0.0,-44.6855,0.0,-169.3468
181924,SLG,20,1.264138,-24.5153,1.2884,-136.6468,1.194748,100.3352,0.0,65.4717,0.0,-46.6582,0.0,-169.6434
181924,SLG,30,1.26449,-22.8049,1.277834,-137.405,1.214687,100.3459,0.0,67.2016,0.0,-47.4197,0.0,-169.6512
181924,SLG,40,1.264241,-21.9473,1.27301,-137.8001,1.224671,100.3721,0.0,68.0719,0.0,-47.792,0.0,-169.6281
181924,LL,0,0.057385,-174.5817,0.06925,-173.4285,1.702375,107.5535,0.0,-84.5375,0.0,-83.4509,0.0,-162.4614
181924,LL,10,1.134639,-29.9426,1.312519,-145.3165,1.209345,105.8616,0.0,60.0601,0.0,-55.3202,0.0,-164.1657
181924,LL,20,1.203472,-24.8506,1.289307,-141.9323,1.223254,102.9869,0.0,65.1574,0.0,-51.9378,0.0,-167.009
181924,LL,30,1.224241,-23.0567,1.280068,-140.9096,1.231969,102.1052,0.0,66.9567,0.0,-50.9522,0.0,-167.885
181924,LL,40,1.234144,-22.1458,1.275275,-140.4201,1.237008,101.6861,0.0,67.8767,0.0,-50.4167,0.0,-168.2761
181924,3LG,0,0.006899,-17.8311,0.006903,-137.8096,0.006901,102.1868,0.0,72.1765,0.0,-47.8093,0.0,-167.8081
181924,3LG,10,1.196845,-25.2059,1.198096,-144.8332,1.190017,94.8315,0.0,64.7966,0.0,-54.8325,0.0,-175.164
181924,3LG,20,1.230174,-22.3667,1.230072,-142.0062,1.222866,97.6014,0.0,67.6284,0.0,-52.0223,0.0,-172.4292
181924,3LG,30,1.240935,-21.3846,1.240413,-141.033,1.233586,98.56,0.0,68.6004,0.0,-51.0558,0.0,-171.4317
181924,3LG,40,1.246236,-20.887,1.245515,-140.5407,1.238889,99.0459,0.0,69.1107,0.0,-50.5434,0.0,-170.9618
181993,SLG,0,0.06211,-111.2937,1.933272,-147.7227,1.373238,129.7775,0.0,-21.3453,0.0,-57.7337,0.0,-140.2411
181993,SLG,10,1.25773,-30.5468,1.334189,-134.3784,1.126299,100.7855,0.0,59.4654,0.0,-44.3653,0.0,-169.1999
181993,SLG,20,1.265725,-24.9908,1.291373,-136.4698,1.189786,100.3509,0.0,65.0015,0.0,-46.4771,0.0,-169.6494
181993,SLG,30,1.265756,-23.119,1.279584,-137.2809,1.21141,100.3462,0.0,66.8681,0.0,-47.3075,0.0,-169.6432
181993,SLG,40,1.265267,-22.1816,1.274232,-137.705,1.222231,100.3687,0.0,67.8321,0.0,-47.721,0.0,-169.6454
181993,LL,0,0.042528,-179.1273,0.043513,178.9289,1.706563,106.8951,0.0,-89.1595,0.0,-91.0938,0.0,-163.0956
181993,LL,10,1.124432,-30.8408,1.320568,-146.0575,1.20931,106.4009,0.0,59.1629,0.0,-56.0724,0.0,-163.6021
181993,LL,20,1.199712,-25.3308,1.293795,-142.2477,1.221508,103.2227,0.0,64.651,0.0,-52.2828,0.0,-166.7606
181993,LL,30,1.222071,-23.38,1.283076,-141.107,1.230497,102.2499,0.0,66.6001,0.0,-51.1227,0.0,-167.7245
181993,LL,40,1.232646,-22.389,1.277525,-140.5633,1.235802,101.7895,0.0,67.6061,0.0,-50.5456,0.0,-168.2282
181993,3LG,0,0.001017,-85.6257,0.001018,154.3926,0.001018,34.3623,0.0,4.3793,0.0,-115.6299,0.0,124.3837
181993,3LG,10,1.194999,-25.7513,1.196425,-145.3703,1.188125,94.2978,0.0,64.2347,0.0,-55.3763,0.0,-175.6709
181993,3LG,20,1.229519,-22.6485,1.229471,-142.2821,1.222136,97.3247,0.0,67.351,0.0,-52.2779,0.0,-172.6692
181993,3LG,30,1.240566,-21.5742,1.240069,-141.2186,1.233157,98.3734,0.0,68.4326,0.0,-51.2195,0.0,-171.6046
181993,3LG,40,1.245985,-21.0299,1.245279,-140.6804,1.23859,98.9052,0.0,68.9815,0.0,-50.6955,0.0,-171.1228
181994,SLG,0,0.038303,-114.3242,1.918656,-148.0807,1.383278,129.1042,0.0,-24.2954,0.0,-58.0864,0.0,-140.9279
181994,SLG,10,1.255163,-31.5821,1.342481,-134.1345,1.116889,100.9676,0.0,58.4215,0.0,-44.1528,0.0,-169.0388
181994,SLG,20,1.2656,-25.509,1.294616,-136.3028,1.184859,100.3827,0.0,64.494,0.0,-46.2976,0.0,-169.6051
181994,SLG,30,1.265934,-23.463,1.281498,-137.1614,1.208129,100.3553,0.0,66.5295,0.0,-47.166,0.0,-169.6572
181994,SLG,40,1.265498,-22.4388,1.275569,-137.6127,1.21978,100.3712,0.0,67.59,0.0,-47.6201,0.0,-169.6269
181994,LL,0,0.025997,177.7909,0.026961,174.9994,1.704582,106.4468,0.0,-92.2802,0.0,-94.9375,0.0,-163.5269
181994,LL,10,1.110928,-31.7508,1.324897,-146.9068,1.21072,106.9336,0.0,58.2495,0.0,-56.903,0.0,-163.0493
181994,LL,20,1.194289,-25.8377,1.296767,-142.617,1.220163,103.4657,0.0,64.1639,0.0,-52.6247,0.0,-166.5256
181994,LL,30,1.218816,-23.7248,1.285133,-141.3395,1.229218,102.3997,0.0,66.2627,0.0,-51.352,0.0,-167.5901
181994,LL,40,1.230344,-22.6495,1.279081,-140.7325,1.234716,101.8966,0.0,67.3647,0.0,-50.7439,0.0,-168.0725
181994,3LG,0,0.000931,-86.5979,0.000931,153.4386,0.000931,33.4,0.0,3.4029,0.0,-116.5462,0.0,123.4072
181994,3LG,10,1.190386,-26.3581,1.191995,-145.9685,1.18349,93.7037,0.0,63.6327,0.0,-55.9851,0.0,-176.2885
181994,3LG,20,1.227482,-22.967,1.227492,-142.5944,1.220027,97.0119,0.0,67.0275,0.0,-52.5659,0.0,-172.9732
181994,3LG,30,1.239279,-21.7897,1.23881,-141.4296,1.231811,98.1614,0.0,68.2073,0.0,-51.4336,0.0,-171.8384
181994,3LG,40,1.245049,-21.1926,1.244359,-140.8398,1.237605,98.7449,0.0,68.8128,0.0,-50.8485,0.0,-171.2458
181891,SLG,0,0.326701,-50.491,1.834836,-144.3145,1.254956,125.8549,0.0,39.4994,0.0,-54.3205,0.0,-144.1446
181891,SLG,10,1.260415,-29.7598,1.327872,-134.3706,1.129757,100.5176,0.0,60.241,0.0,-44.3835,0.0,-169.4666
181891,SLG,20,1.268858,-24.655,1.287753,-136.4337,1.191088,100.1842,0.0,65.3507,0.0,-46.4486,0.0,-169.8116
181891,SLG,30,1.268298,-22.9054,1.276995,-137.2511,1.212233,100.2263,0.0,67.093,0.0,-47.2658,0.0,-169.7708
181891,SLG,40,1.26735,-22.0248,1.272214,-137.6808,1.22284,100.2754,0.0,67.9897,0.0,-47.6916,0.0,-169.7213
181891,LL,0,0.229789,-41.618,0.352408,-156.4228,1.609119,107.7323,0.0,48.3573,0.0,-66.4452,0.0,-162.2813
181891,LL,10,1.132766,-30.1329,1.316372,-145.4641,1.207464,106.1378,0.0,59.876,0.0,-55.4658,0.0,-163.87
181891,LL,20,1.204536,-25.1225,1.293473,-141.9379,1.219328,103.1043,0.0,64.8831,0.0,-51.9282,0.0,-166.9012
181891,LL,30,1.225602,-23.2696,1.283155,-140.8924,1.228758,102.1661,0.0,66.7287,0.0,-50.9176,0.0,-167.8134
181891,LL,40,1.235431,-22.3162,1.277676,-140.3987,1.234398,101.7238,0.0,67.6874,0.0,-50.4097,0.0,-168.2561
181891,3LG,0,0.285524,-31.3727,0.285799,-151.2525,0.285123,88.6575,0.0,58.6225,0.0,-61.2746,0.0,178.6401
181891,3LG,10,1.197618,-25.2927,1.198792,-144.9141,1.190662,94.7419,0.0,64.7291,0.0,-54.9145,0.0,-175.2572
181891,3LG,20,1.231091,-22.4603,1.23093,-142.094,1.22365,97.507,0.0,67.5296,0.0,-52.0863,0.0,-172.5207
181891,3LG,30,1.241696,-21.458,1.241122,-141.1021,1.234242,98.4857,0.0,68.548,0.0,-51.1141,0.0,-171.5103
181891,3LG,40,1.246868,-20.9462,1.246102,-140.5965,1.239436,98.9859,0.0,69.0591,0.0,-50.5934,0.0,-170.9949
255335,SLG,0,0.000517,-112.1891,1.897413,-147.9658,1.377011,128.2491,0.0,-16.6992,0.0,-57.985,0.0,-141.7446
255335,SLG,10,1.237028,-33.4819,1.358314,-133.7954,1.101295,101.4045,0.0,56.5058,0.0,-43.805,0.0,-168.5542
255335,SLG,20,1.258815,-26.4953,1.301163,-136.0267,1.176038,100.4817,0.0,63.5213,0.0,-46.0241,0.0,-169.5155
255335,SLG,30,1.261969,-24.1249,1.285418,-136.9561,1.202145,100.3953,0.0,65.8558,0.0,-46.9681,0.0,-169.586
255335,SLG,40,1.262737,-22.9363,1.278325,-137.4513,1.215271,100.3917,0.0,67.0811,0.0,-47.4312,0.0,-169.5811
255335,LL,0,0.000581,-69.363,0.000802,135.0751,1.696404,106.0957,0.0,30.3432,0.0,-131.855,0.0,-163.9146
255335,LL,10,1.075435,-33.2821,1.318859,-148.5668,1.21653,107.8492,0.0,56.7182,0.0,-58.5509,0.0,-162.1448
255335,LL,20,1.178194,-26.7607,1.296043,-143.3622,1.218754,103.923,0.0,63.2459,0.0,-53.3772,0.0,-166.0753
255335,LL,30,1.208667,-24.3649,1.284949,-141.8119,1.227406,102.6865,0.0,65.633,0.0,-51.8008,0.0,-167.3215
255335,LL,40,1.222972,-23.1374,1.279021,-141.0773,1.233059,102.1029,0.0,66.8525,0.0,-51.081,0.0,-167.9015
255335,3LG,0,0.00078,-85.1677,0.000781,154.8886,0.00078,34.8477,0.0,4.8418,0.0,-115.1244,0.0,124.8613
255335,3LG,10,1.171414,-27.4746,1.173401,-147.0711,1.16461,92.6117,0.0,62.5312,0.0,-57.0921,0.0,-177.4074
255335,3LG,20,1.218171,-23.5748,1.218324,-143.1903,1.210638,96.4162,0.0,66.4124,0.0,-53.2249,0.0,-173.5733
255335,3LG,30,1.233146,-22.2055,1.232751,-141.8368,1.225598,97.7529,0.0,67.8022,0.0,-51.8425,0.0,-172.2581
255335,3LG,40,1.240481,-21.5084,1.239838,-141.149,1.232968,98.4343,0.0,68.5067,0.0,-51.1704,0.0,-171.5532
182030,SLG,0,0.00051,-110.1575,1.887698,-147.5576,1.362662,127.9118,3673.7852,-110.1575,0.0,-57.4323,0.0,-142.1179
182030,SLG,10,1.226829,-33.6883,1.359747,-133.8954,1.102427,101.5357,883.2625,-33.6883,0.0,-43.8713,0.0,-168.513
182030,SLG,20,1.253833,-26.6293,1.302179,-136.0592,1.176094,100.5428,451.3521,-26.6293,0.0,-46.0517,0.0,-169.5065
182030,SLG,30,1.258711,-24.2209,1.28613,-136.9727,1.202075,100.4334,302.0722,-24.2209,0.0,-46.9705,0.0,-169.6037
182030,SLG,40,1.260323,-23.0107,1.278868,-137.4618,1.21518,100.4192,226.8443,-23.0107,0.0,-47.4591,0.0,-169.5775
182030,LL,0,0.000562,-68.4579,0.000779,136.8791,1.689572,106.2476,4047.5735,-68.4579,5609.7082,136.8791,0.0,-163.701
182030,LL,10,1.067372,-33.3312,1.309016,-148.8465,1.219468,107.8151,768.461,-33.3312,942.4339,-148.8465,0.0,-162.2359
182030,LL,20,1.173459,-26.8302,1.291785,-143.5249,1.220029,103.9423,422.4194,-26.8302,465.0141,-143.5249,0.0,-166.0741
182030,LL,30,1.205415,-24.4217,1.282279,-141.9232,1.228146,102.7055,289.2818,-24.4217,307.7282,-141.9232,0.0,-167.3163
182030,LL,40,1.220508,-23.1839,1.277081,-141.1616,1.233566,102.1189,219.6779,-23.1839,229.8605,-141.1616,0.0,-167.8928
182030,3LG,0,0.000755,-83.7083,0.000756,156.3517,0.000755,36.3095,5435.2754,-83.7083,5444.3347,156.3517,5436.7456,36.3095
182030,3LG,10,1.164099,-27.6532,1.16607,-147.2525,1.157389,92.4315,838.1,-27.6532,839.5187,-147.2525,833.2689,92.4315
182030,3LG,20,1.214344,-23.6806,1.214513,-143.2971,1.206862,96.3105,437.1371,-23.6806,437.1978,-143.2971,434.4436,96.3105
182030,3LG,30,1.230567,-22.28,1.230186,-141.9118,1.223051,97.6787,295.318,-22.28,295.2265,-141.9118,293.5142,97.6787
182030,3LG,40,1.238538,-21.5658,1.237906,-141.2066,1.231048,98.3772,222.9232,-21.5658,222.8095,-141.2066,221.5751,98.3772
182153,SLG,0,0.275027,-57.5909,1.861869,-144.5069,1.26208,127.0705,0.0,32.3914,0.0,-54.532,0.0,-142.9108
182153,SLG,10,1.240111,-35.0495,1.379673,-132.8683,1.07384,101.8418,0.0,54.943,0.0,-42.8807,0.0,-168.1606
182153,SLG,20,1.267775,-27.3866,1.306333,-135.2842,1.159173,100.2306,0.0,62.6115,0.0,-45.299,0.0,-169.7568
182153,SLG,30,1.269594,-24.7493,1.287618,-136.4104,1.190696,100.1652,0.0,65.2678,0.0,-46.4348,0.0,-169.8179
182153,SLG,40,1.269099,-23.4139,1.279444,-137.0253,1.206662,100.196,0.0,66.5734,0.0,-47.0318,0.0,-169.7853
182153,LL,0,0.312654,-40.9828,0.335984,-178.7904,1.638876,107.2622,0.0,49.0311,0.0,-88.8239,0.0,-162.7539
182153,LL,10,1.054211,-34.0285,1.330111,-149.6977,1.221145,109.103,0.0,55.9606,0.0,-59.6958,0.0,-160.9101
182153,LL,20,1.168914,-27.932,1.310536,-143.7256,1.208628,104.6799,0.0,62.0712,0.0,-53.7604,0.0,-165.3293
182153,LL,30,1.204264,-25.2403,1.295283,-141.9895,1.21838,103.1329,0.0,64.7805,0.0,-51.9934,0.0,-166.8986
182153,LL,40,1.220427,-23.8245,1.28689,-141.1846,1.225532,102.4088,0.0,66.1854,0.0,-51.1724,0.0,-167.5915
182153,3LG,0,0.348689,-49.1563,0.349696,-168.965,0.348209,70.9374,0.0,40.8384,0.0,-78.962,0.0,160.9177
182153,3LG,10,1.165857,-27.9669,1.168714,-147.5405,1.159173,92.1715,0.0,62.0483,0.0,-57.5413,0.0,-177.8385
182153,3LG,20,1.215645,-23.9943,1.216137,-143.5816,1.207798,96.0265,0.0,66.0058,0.0,-53.5493,0.0,-173.9657
182153,3LG,30,1.231637,-22.5254,1.231398,-142.1353,1.223787,97.4512,0.0,67.4804,0.0,-52.1443,0.0,-172.5341
182153,3LG,40,1.239432,-21.7636,1.238875,-141.3875,1.231663,98.1919,0.0,68.2424,0.0,-51.3736,0.0,-171.8192
182158,SLG,0,0.341546,-53.1254,1.843733,-143.816,1.239791,126.2625,0.0,36.9022,0.0,-53.8249,0.0,-143.7194
182158,SLG,10,1.2399,-35.6373,1.388426,-132.5578,1.064038,102.0822,0.0,54.3767,0.0,-42.5481,0.0,-167.9197
182158,SLG,20,1.271137,-27.7026,1.308087,-135.0084,1.153011,100.1256,0.0,62.3002,0.0,-45.021,0.0,-169.8811
182158,SLG,30,1.27261,-24.9667,1.288182,-136.2064,1.186569,100.0663,0.0,65.0476,0.0,-46.221,0.0,-169.9227
182158,SLG,40,1.27166,-23.5784,1.279609,-136.8661,1.203592,100.1113,0.0,66.4175,0.0,-46.8833,0.0,-169.9079
182158,LL,0,0.379714,-38.8728,0.403982,-174.0659,1.619584,107.3374,0.0,51.1371,0.0,-84.069,0.0,-162.6937
182158,LL,10,1.053327,-33.6435,1.326349,-150.2141,1.228137,109.2556,0.0,56.3374,0.0,-60.2102,0.0,-160.7229
182158,LL,20,1.16542,-28.3543,1.315921,-143.8714,1.205034,104.9708,0.0,61.6477,0.0,-53.8762,0.0,-165.0322
182158,LL,30,1.20285,-25.5617,1.299193,-142.0519,1.214925,103.2982,0.0,64.4229,0.0,-52.0822,0.0,-166.696
182158,LL,40,1.21976,-24.0775,1.289862,-141.2173,1.222602,102.518,0.0,65.9104,0.0,-51.2233,0.0,-167.4828
182158,3LG,0,0.4174,-45.8375,0.418736,-165.6072,0.416623,74.2745,0.0,44.1596,0.0,-75.6131,0.0,164.2866
182158,3LG,10,1.16374,-28.1469,1.166868,-147.7177,1.157151,92.0051,0.0,61.8427,0.0,-57.7402,0.0,-177.9897
182158,3LG,20,1.214831,-24.1461,1.215437,-143.7245,1.206875,95.8841,0.0,65.8458,0.0,-53.7251,0.0,-174.1379
182158,3LG,30,1.231211,-22.6411,1.231015,-142.2438,1.223247,97.341,0.0,67.3564,0.0,-52.24,0.0,-172.6663
182158,3LG,40,1.239166,-21.8558,1.238625,-141.474,1.231296,98.1033,0.0,68.1524,0.0,-51.5017,0.0,-171.9021
182162,SLG,0,0.397891,-49.7805,1.826889,-143.2903,1.223462,125.4835,0.0,40.189,0.0,-53.2885,0.0,-144.4841
182162,SLG,10,1.239177,-36.2252,1.397743,-132.2653,1.054238,102.3631,0.0,53.7665,0.0,-42.2649,0.0,-167.6331
182162,SLG,20,1.274524,-28.0184,1.309983,-134.7303,1.146733,100.0218,0.0,61.9759,0.0,-44.7486,0.0,-169.9827
182162,SLG,30,1.275723,-25.1826,1.288768,-135.9992,1.182381,99.9648,0.0,64.8025,0.0,-46.0313,0.0,-170.0236
182162,SLG,40,1.274326,-23.7407,1.279757,-136.7043,1.200488,100.0235,0.0,66.2729,0.0,-46.7,0.0,-169.9644
182162,LL,0,0.435208,-37.3138,0.459357,-170.4781,1.602587,107.3393,0.0,52.6641,0.0,-80.4993,0.0,-162.6751
182162,LL,10,1.052724,-33.2663,1.322376,-150.7112,1.235102,109.3938,0.0,56.7306,0.0,-60.7242,0.0,-160.583
182162,LL,20,1.161684,-28.7701,1.321498,-144.0283,1.201654,105.2778,0.0,61.2582,0.0,-54.0374,0.0,-164.7048
182162,LL,30,1.201399,-25.883,1.303291,-142.116,1.211459,103.4715,0.0,64.122,0.0,-52.1157,0.0,-166.5311
182162,LL,40,1.219125,-24.3312,1.292976,-141.2489,1.21962,102.6309,0.0,65.6801,0.0,-51.2652,0.0,-167.3587
182162,3LG,0,0.472885,-43.355,0.474499,-163.0904,0.471789,76.7705,0.0,46.6259,0.0,-73.0991,0.0,166.7732
182162,3LG,10,1.161739,-28.3171,1.165134,-147.8869,1.155277,91.8474,0.0,61.6947,0.0,-57.8861,0.0,-178.1414
182162,3LG,20,1.214107,-24.2937,1.214841,-143.8631,1.20605,95.7465,0.0,65.7129,0.0,-53.866,0.0,-174.2446
182162,3LG,30,1.230864,-22.7542,1.230716,-142.3494,1.222783,97.2338,0.0,67.2522,0.0,-52.3525,0.0,-172.7715
182162,3LG,40,1.238967,-21.9461,1.238445,-141.5584,1.230994,98.0168,0.0,68.0705,0.0,-51.5491,0.0,-171.9809
